Version 4
SHEET 1 2172 708
WIRE 496 64 128 64
WIRE 784 64 608 64
WIRE 832 64 784 64
WIRE 960 64 896 64
WIRE 1136 64 960 64
WIRE 1200 64 1136 64
WIRE 1424 64 1200 64
WIRE 784 80 784 64
WIRE 960 80 960 64
WIRE 496 96 496 64
WIRE 608 96 608 64
WIRE 128 112 128 64
WIRE 1424 112 1424 64
WIRE 784 176 784 144
WIRE 832 176 784 176
WIRE 960 176 960 144
WIRE 960 176 896 176
WIRE 1200 176 1200 64
WIRE 1248 176 1200 176
WIRE 1664 176 1600 176
WIRE 1728 176 1664 176
WIRE 2112 176 1728 176
WIRE 128 208 128 192
WIRE 272 208 128 208
WIRE 448 208 352 208
WIRE 496 208 496 176
WIRE 496 208 448 208
WIRE 608 224 608 176
WIRE 960 224 960 176
WIRE 960 224 608 224
WIRE 1120 256 1088 256
WIRE 1248 256 1200 256
WIRE 1632 256 1600 256
WIRE 2112 272 2112 176
WIRE 1632 336 1632 256
WIRE 1632 336 1600 336
WIRE 1680 416 1600 416
WIRE 1088 624 1088 256
WIRE 1664 624 1664 176
WIRE 1664 624 1088 624
WIRE 784 688 784 176
WIRE 1440 688 784 688
WIRE 2112 688 2112 352
WIRE 2112 688 1440 688
FLAG 448 208 0
FLAG 1424 560 0
FLAG 1760 416 0
FLAG 1248 336 0
FLAG 1136 128 0
FLAG 1728 240 0
FLAG 1168 416 0
FLAG 1184 496 0
FLAG 1440 688 0
SYMBOL voltage 128 96 R0
WINDOW 3 -202 149 Left 2
WINDOW 123 0 0 Left 0
WINDOW 39 0 0 Left 0
SYMATTR Value SINE(0 120 60 0 0 0)
SYMATTR InstName V1
SYMBOL res 368 192 R90
WINDOW 0 0 56 VBottom 2
WINDOW 3 32 56 VTop 2
SYMATTR InstName R1
SYMATTR Value 5
SYMBOL ind2 480 80 R0
SYMATTR InstName L1
SYMATTR Value 4
SYMATTR Type ind
SYMBOL ind2 624 80 M0
SYMATTR InstName L2
SYMATTR Value 1
SYMATTR Type ind
SYMBOL diode 800 144 R180
WINDOW 0 24 64 Left 2
WINDOW 3 24 0 Left 2
SYMATTR InstName D1
SYMATTR Value 1N4148
SYMBOL diode 832 80 R270
WINDOW 0 32 32 VTop 2
WINDOW 3 0 32 VBottom 2
SYMATTR InstName D2
SYMATTR Value 1N4148
SYMBOL diode 832 192 R270
WINDOW 0 32 32 VTop 2
WINDOW 3 0 32 VBottom 2
SYMATTR InstName D3
SYMATTR Value 1N4148
SYMBOL diode 976 144 R180
WINDOW 0 24 64 Left 2
WINDOW 3 24 0 Left 2
SYMATTR InstName D4
SYMATTR Value 1N4148
SYMBOL PowerProducts\\LTM8073 1424 336 R0
SYMATTR InstName U1
SYMBOL res 1216 240 R90
WINDOW 0 0 56 VBottom 2
WINDOW 3 32 56 VTop 2
SYMATTR InstName R2
SYMATTR Value 100k
SYMBOL res 1776 400 R90
WINDOW 0 0 56 VBottom 2
WINDOW 3 32 56 VTop 2
SYMATTR InstName R3
SYMATTR Value 47.5k
SYMBOL res 1264 400 R90
WINDOW 0 0 56 VBottom 2
WINDOW 3 32 56 VTop 2
SYMATTR InstName R4
SYMATTR Value 32.4K
SYMBOL cap 1248 480 R90
WINDOW 0 0 32 VBottom 2
WINDOW 3 32 32 VTop 2
SYMATTR InstName C1
SYMATTR Value 0.01µ
SYMBOL res 2096 256 R0
SYMATTR InstName R5
SYMATTR Value 1.6
SYMBOL cap 1120 64 R0
SYMATTR InstName C2
SYMATTR Value 100µ
SYMBOL cap 1712 176 R0
SYMATTR InstName C3
SYMATTR Value 100µ
TEXT 128 304 Left 2 !.tran 1
TEXT 512 264 Left 2 !K L1 L2 1
